@<TRIPOS>MOLECULE
*****
 22 22 0 0 0
SMALL
GASTEIGER

@<TRIPOS>ATOM
      1 O13        79.4743   11.5406   13.0695 O.3   505  9U0505505505505   -0.2267
      2 C14        78.8194   12.5127   12.2556 C.3   505  9U0505505505505    0.1119
      3 C15        79.1899   12.2793   10.7630 C.3   505  9U0505505505505   -0.0200
      4 C16        78.7271   13.3987    9.7732 C.3   505  9U0505505505505   -0.0503
      5 C17        79.6432   14.6690    9.7008 C.3   505  9U0505505505505   -0.0527
      6 C18        79.0128   15.9967   10.2362 C.3   505  9U0505505505505   -0.0496
      7 C19        79.0468   16.1601   11.7797 C.3   505  9U0505505505505   -0.0347
      8 C20        78.4692   14.9136   12.3827 C.2   505  9U0505505505505   -0.0854
      9 C21        79.2689   13.8919   12.6410 C.2   505  9U0505505505505   -0.0565
     10 H          77.7375   12.4167   12.3844 H       1  LIG1        0.0672
     11 H          80.2701   12.1412   10.6667 H       1  LIG1        0.0294
     12 H          78.7311   11.3375   10.4520 H       1  LIG1        0.0294
     13 H          78.7242   12.9524    8.7756 H       1  LIG1        0.0266
     14 H          77.6888   13.6741    9.9720 H       1  LIG1        0.0266
     15 H          79.8755   14.8346    8.6458 H       1  LIG1        0.0265
     16 H          80.6045   14.4853   10.1866 H       1  LIG1        0.0265
     17 H          77.9821   16.0760    9.8815 H       1  LIG1        0.0268
     18 H          79.5552   16.8390    9.7996 H       1  LIG1        0.0268
     19 H          78.4782   17.0402   12.0886 H       1  LIG1        0.0307
     20 H          80.0808   16.3046   12.1041 H       1  LIG1        0.0307
     21 H          77.4154   14.7434   12.1709 H       1  LIG1        0.0570
     22 H          80.3473   14.0348   12.6756 H       1  LIG1        0.0595
@<TRIPOS>BOND
     1     5     4    1
     2     5     6    1
     3     4     3    1
     4     6     7    1
     5     3     2    1
     6     7     8    1
     7     2     1    1
     8     2     9    1
     9     8     9    2
    10     2    10    1
    11     3    11    1
    12     3    12    1
    13     4    13    1
    14     4    14    1
    15     5    15    1
    16     5    16    1
    17     6    17    1
    18     6    18    1
    19     7    19    1
    20     7    20    1
    21     8    21    1
    22     9    22    1
