@<TRIPOS>MOLECULE
*****
 22 22 0 0 0
SMALL
GASTEIGER

@<TRIPOS>ATOM
      1 O13        77.4807   12.2405   12.5058 O.3   505  9U0505505505505   -0.2267
      2 C14        78.8670   12.4970   12.2608 C.3   505  9U0505505505505    0.1119
      3 C15        79.1923   12.2826   10.7530 C.3   505  9U0505505505505   -0.0200
      4 C16        78.7212   13.4121    9.7772 C.3   505  9U0505505505505   -0.0503
      5 C17        79.6448   14.6771    9.7013 C.3   505  9U0505505505505   -0.0527
      6 C18        79.0220   16.0093   10.2346 C.3   505  9U0505505505505   -0.0496
      7 C19        79.0491   16.1696   11.7787 C.3   505  9U0505505505505   -0.0347
      8 C20        78.4646   14.9222   12.3729 C.2   505  9U0505505505505   -0.0854
      9 C21        79.2644   13.8997   12.6412 C.2   505  9U0505505505505   -0.0565
     10 H          79.4510   11.7844   12.8496 H       1  LIG1        0.0672
     11 H          80.2696   12.1416   10.6371 H       1  LIG1        0.0294
     12 H          78.7306   11.3429   10.4392 H       1  LIG1        0.0294
     13 H          78.7020   12.9730    8.7767 H       1  LIG1        0.0266
     14 H          77.6868   13.6915    9.9900 H       1  LIG1        0.0266
     15 H          79.8785   14.8389    8.6460 H       1  LIG1        0.0265
     16 H          80.6046   14.4895   10.1884 H       1  LIG1        0.0265
     17 H          77.9934   16.0954    9.8754 H       1  LIG1        0.0268
     18 H          79.5719   16.8483    9.8015 H       1  LIG1        0.0268
     19 H          78.4801   17.0497   12.0868 H       1  LIG1        0.0307
     20 H          80.0815   16.3112   12.1087 H       1  LIG1        0.0307
     21 H          77.4136   14.7599   12.1438 H       1  LIG1        0.0570
     22 H          80.3390   14.0583   12.6985 H       1  LIG1        0.0595
@<TRIPOS>BOND
     1     5     4    1
     2     5     6    1
     3     4     3    1
     4     6     7    1
     5     3     2    1
     6     7     8    1
     7     2     1    1
     8     2     9    1
     9     8     9    2
    10     2    10    1
    11     3    11    1
    12     3    12    1
    13     4    13    1
    14     4    14    1
    15     5    15    1
    16     5    16    1
    17     6    17    1
    18     6    18    1
    19     7    19    1
    20     7    20    1
    21     8    21    1
    22     9    22    1
